data_image0
_chemical_formula_structural       Zn8H78C72N6O26
_chemical_formula_sum              "Zn8 H78 C72 N6 O26"
_cell_length_a       19.292038679063307
_cell_length_b       19.502012120204792
_cell_length_c       19.562735019376372
_cell_angle_alpha    90.3548163471851
_cell_angle_beta     119.41512543144391
_cell_angle_gamma    119.35257453450915

_space_group_name_H-M_alt    "P 1"
_space_group_IT_number       1

loop_
  _space_group_symop_operation_xyz
  'x, y, z'

loop_
  _atom_site_type_symbol
  _atom_site_label
  _atom_site_symmetry_multiplicity
  _atom_site_fract_x
  _atom_site_fract_y
  _atom_site_fract_z
  _atom_site_occupancy
  Zn  Zn1       1.0  0.9133902258606309  0.04625710425292445  0.9532155751919495  1.0000
  Zn  Zn2       1.0  0.0754443259460392  0.04141229624680491  0.11454834811437464  1.0000
  Zn  Zn3       1.0  0.08099855403134089  0.04652176661979244  0.954796128903631  1.0000
  Zn  Zn4       1.0  0.9161651744186571  0.8827111391166709  0.9520250637882706  1.0000
  Zn  Zn5       1.0  0.08162775525939754  0.4633467105445991  0.5367245408717971  1.0000
  Zn  Zn6       1.0  0.9245928100998801  0.46573841660855964  0.37265169587917896  1.0000
  Zn  Zn7       1.0  0.07995089974494331  0.6253114099916651  0.5386465894814585  1.0000
  Zn  Zn8       1.0  0.910890024533411  0.45676236719096974  0.5307041405064227  1.0000
  H   H1        1.0  0.9175487493409251  0.17422226811083977  0.14495673466267237  1.0000
  H   H2        1.0  0.9546831920081925  0.12106938709524423  0.2124994240004672  1.0000
  H   H3        1.0  0.13109682123890212  0.2475424874197197  0.24523795783652724  1.0000
  H   H4        1.0  0.07503004926081326  0.2999996505557932  0.2292609039250574  1.0000
  H   H5        1.0  0.07708053205190722  0.29408063879143354  0.41378118535781944  1.0000
  H   H6        1.0  0.9671085253010399  0.22330163556662055  0.3165404327327874  1.0000
  H   H7        1.0  0.11755463596489917  0.3982325960941613  0.3367035857041339  1.0000
  H   H8        1.0  0.9927867300338302  0.3358542067584691  0.25479129853066373  1.0000
  H   H9        1.0  0.1996023157110501  0.20516220982742953  0.31827418585462314  1.0000
  H   H10       1.0  0.24877270378914348  0.1207253811881497  0.39236836472451264  1.0000
  H   H11       1.0  0.2016673119033085  0.06753490614732376  0.48909114426974326  1.0000
  H   H12       1.0  0.10149723973072436  0.10165165743655814  0.5075284500927776  1.0000
  H   H13       1.0  0.050103704624727616  0.18510937004150466  0.43309710142602753  1.0000
  H   H14       1.0  0.9932166571617878  0.24487736609986932  0.8408089118677381  1.0000
  H   H15       1.0  0.10970061873570025  0.26523099194788635  0.8854569420510772  1.0000
  H   H16       1.0  0.00824221589314184  0.13048753661034262  0.7511253078882704  1.0000
  H   H17       1.0  0.9389729749659872  0.17129862576035237  0.707464302880837  1.0000
  H   H18       1.0  0.1244930620317419  0.35402872832483606  0.7083124799659147  1.0000
  H   H19       1.0  0.09390785262380105  0.36063982224387275  0.7790975289999547  1.0000
  H   H20       1.0  0.9436486996785083  0.23307670561906224  0.6047580324971945  1.0000
  H   H21       1.0  0.9215603684551775  0.2759095266056581  0.6660784970455305  1.0000
  H   H22       1.0  0.12579547631636506  0.13835329526948395  0.7887343263487723  1.0000
  H   H23       1.0  0.28589649014625695  0.1650089667111306  0.8645587643970697  1.0000
  H   H24       1.0  0.4328351233941261  0.3080640753705397  0.9141982782268311  1.0000
  H   H25       1.0  0.4126972917655098  0.4241733341574607  0.88613844861071  1.0000
  H   H26       1.0  0.2532860176952746  0.39936571030472806  0.811369243913526  1.0000
  H   H27       1.0  0.6029848451689742  0.8572952300480285  0.7557321869253559  1.0000
  H   H28       1.0  0.6296830838837221  0.788346002239978  0.7332286476002253  1.0000
  H   H29       1.0  0.6273722376194778  0.7523633906830722  0.8677343485900302  1.0000
  H   H30       1.0  0.5401583848674585  0.7749580000754628  0.8265146404778899  1.0000
  H   H31       1.0  0.36472189410347444  0.5930595465938954  0.6454189254011109  1.0000
  H   H32       1.0  0.4262810732002071  0.6930359793199214  0.6371996826905721  1.0000
  H   H33       1.0  0.3768391998056516  0.6668425131535763  0.7654247509477049  1.0000
  H   H34       1.0  0.39485884835169677  0.7496229516152398  0.7230411726535111  1.0000
  H   H35       1.0  0.664773963491198  0.6792977272862153  0.8586482946294557  1.0000
  H   H36       1.0  0.7197733750792663  0.6001421840113436  0.8319967911082178  1.0000
  H   H37       1.0  0.6287960058092377  0.503031063854853  0.6899546495935799  1.0000
  H   H38       1.0  0.4808624233145137  0.4899862744530305  0.5748748605309477  1.0000
  H   H39       1.0  0.42495771471994775  0.5694148184333415  0.5996714291018237  1.0000
  H   H40       1.0  0.6104280508686117  0.27041854245973374  0.24074209476687472  1.0000
  H   H41       1.0  0.6329460992134193  0.24354579252366645  0.3325615352247426  1.0000
  H   H42       1.0  0.6221793003654278  0.3746431103391031  0.36603388747750754  1.0000
  H   H43       1.0  0.5363082509246294  0.33100054327261774  0.2583426548527823  1.0000
  H   H44       1.0  0.36659069501078834  0.14508370719771152  0.2689630496378193  1.0000
  H   H45       1.0  0.43071184323302614  0.1419890247729164  0.22918274802177824  1.0000
  H   H46       1.0  0.36953965503408226  0.2626169183812707  0.20759529510879351  1.0000
  H   H47       1.0  0.3939036840011814  0.2267840998302194  0.14365918155926327  1.0000
  H   H48       1.0  0.6565482851801282  0.366679565717007  0.4757779181065338  1.0000
  H   H49       1.0  0.716411470077492  0.3412895744642707  0.6082546082686651  1.0000
  H   H50       1.0  0.637008588734627  0.19717752284363188  0.6156635993554848  1.0000
  H   H51       1.0  0.4962949232526919  0.07874894787784048  0.48399746251319115  1.0000
  H   H52       1.0  0.4362251799264538  0.10248793597511523  0.35035972706818835  1.0000
  H   H53       1.0  0.09344672857133743  0.7558723879801135  0.35519336502260646  1.0000
  H   H54       1.0  0.05298605680496722  0.6639187363434605  0.2874899884873656  1.0000
  H   H55       1.0  0.8775022853949349  0.6286457200007217  0.24722435370389975  1.0000
  H   H56       1.0  0.9410321739112719  0.7364757978132908  0.2670039626297212  1.0000
  H   H57       1.0  0.9455394328929577  0.7257655140215266  0.08586309915658627  1.0000
  H   H58       1.0  0.052967357121858266  0.766142735330531  0.18632910531159738  1.0000
  H   H59       1.0  0.8933862654289716  0.7874750666243693  0.15292864500546832  1.0000
  H   H60       1.0  0.016909425919757318  0.8514092966876255  0.2378536834787206  1.0000
  H   H61       1.0  0.8145629651092416  0.5188200427389116  0.1759768634238949  1.0000
  H   H62       1.0  0.7684461943280559  0.3863928802204062  0.10377503401205757  1.0000
  H   H63       1.0  0.8225612017147158  0.3791611356621571  0.012499191005136174  1.0000
  H   H64       1.0  0.9277518775164225  0.5111685349023458  0.9985850588994816  1.0000
  H   H65       1.0  0.976424694157622  0.6448126550338095  0.07155414223815323  1.0000
  H   H66       1.0  0.9590534361681214  0.6391081103394827  0.7146305821630963  1.0000
  H   H67       1.0  0.08185729661922367  0.7019416598070836  0.7492157652050252  1.0000
  H   H68       1.0  0.998482978344772  0.753250469047541  0.6165951260979858  1.0000
  H   H69       1.0  0.9336068608474615  0.7390142458173626  0.6599281648511292  1.0000
  H   H70       1.0  0.1332976991978952  0.9133163096761449  0.8454414850164067  1.0000
  H   H71       1.0  0.10053109896425722  0.812425973733255  0.8523437177949987  1.0000
  H   H72       1.0  0.9528461099430561  0.8468409496341538  0.7334128928072476  1.0000
  H   H73       1.0  0.9287818840969146  0.7609559427094988  0.7712223408763099  1.0000
  H   H74       1.0  0.11628461810057927  0.8182904699678014  0.6226920411971569  1.0000
  H   H75       1.0  0.273472779036757  0.8823085554744674  0.6453088517172761  1.0000
  H   H76       1.0  0.4257749546495826  0.9692563316767913  0.7874644717711834  1.0000
  H   H77       1.0  0.41353394055526993  0.9875040937889066  0.9068636043552151  1.0000
  H   H78       1.0  0.2568067838609409  0.9224190365653916  0.8860890931956517  1.0000
  C   C1        1.0  0.9807069006580162  0.12112731161483138  0.1202363262606627  1.0000
  C   C2        1.0  0.9755000333955817  0.16484214807403935  0.17995460640241734  1.0000
  C   C3        1.0  0.07408082060440103  0.24611910992990688  0.24593858499986024  1.0000
  C   C4        1.0  0.043135956226991366  0.2770663698192989  0.3466403384220065  1.0000
  C   C5        1.0  0.04480287850216271  0.3517379276331955  0.3212219688683404  1.0000
  C   C6        1.0  0.0272869841018385  0.3944616658789856  0.3700100660671523  1.0000
  C   C7        1.0  0.12197815619385709  0.20420181925645742  0.370274903481426  1.0000
  C   C8        1.0  0.17738565616809512  0.18331079033006126  0.3595614184923214  1.0000
  C   C9        1.0  0.20516957904156835  0.13476938155457655  0.40163130923173085  1.0000
  C   C10       1.0  0.17901617498458552  0.10496360143641217  0.45572064385069627  1.0000
  C   C11       1.0  0.12353596023533536  0.12440623976762195  0.46616001242926053  1.0000
  C   C12       1.0  0.09467966606415075  0.17271267828221226  0.4239767475288886  1.0000
  C   C13       1.0  0.010445731071205205  0.1489378274370116  0.8811488230997265  1.0000
  C   C14       1.0  0.03154940432357498  0.21724093733844363  0.8427900205839554  1.0000
  C   C15       1.0  0.010651226433857483  0.18757153514707453  0.757121583220578  1.0000
  C   C16       1.0  0.07354202523832953  0.3180809948919664  0.7247561745899268  1.0000
  C   C17       1.0  0.9731514414747497  0.2899443533045982  0.6501499145206862  1.0000
  C   C18       1.0  0.9790421918279187  0.35411994855086754  0.6057319906243138  1.0000
  C   C19       1.0  0.17480991831956708  0.26609327660560783  0.7911579882727084  1.0000
  C   C20       1.0  0.18759979009712013  0.20145265569618961  0.8091130685459023  1.0000
  C   C21       1.0  0.279121276701009  0.21674077364965919  0.8528033837747042  1.0000
  C   C22       1.0  0.3613625703295434  0.2965541334651106  0.8806462732455339  1.0000
  C   C23       1.0  0.34984350693342103  0.36108119662586297  0.8644925190983798  1.0000
  C   C24       1.0  0.25845830848089535  0.34673491406196766  0.8210852668375171  1.0000
  C   C25       1.0  0.7394701810299515  0.8801259101464662  0.8502799017479483  1.0000
  C   C26       1.0  0.6332494834120224  0.8214932669299739  0.7819829851380421  1.0000
  C   C27       1.0  0.5764304208988539  0.7554767015156432  0.8106660791953436  1.0000
  C   C28       1.0  0.4152834173307347  0.6596920448163841  0.6804772590733295  1.0000
  C   C29       1.0  0.36625876000582747  0.6832691653385655  0.70888310549857  1.0000
  C   C30       1.0  0.2579445424266521  0.632877549701742  0.6445813081839402  1.0000
  C   C31       1.0  0.538205770854971  0.6297415789221639  0.7320275025045112  1.0000
  C   C32       1.0  0.6228845488720071  0.6377632653654406  0.7960514581726228  1.0000
  C   C33       1.0  0.654671168296746  0.5928926634731613  0.7807123030599404  1.0000
  C   C34       1.0  0.6040964876493374  0.5386389029275301  0.7014863027145369  1.0000
  C   C35       1.0  0.5213297620323825  0.531159318811323  0.6375393659435269  1.0000
  C   C36       1.0  0.4888926603420663  0.5761867041636826  0.651903869234372  1.0000
  C   C37       1.0  0.7425048520388242  0.3639109999182539  0.3548336967963091  1.0000
  C   C38       1.0  0.6364818290577439  0.29360326824266114  0.30538053838366874  1.0000
  C   C39       1.0  0.5743954305262178  0.31720846542800507  0.3137459536812197  1.0000
  C   C40       1.0  0.4163597506623583  0.18265173447226432  0.2518116170302753  1.0000
  C   C41       1.0  0.36388781084078614  0.2087552962885023  0.1807390998935416  1.0000
  C   C42       1.0  0.2566607875500136  0.14112075122918938  0.12340292684157447  1.0000
  C   C43       1.0  0.5394065115041841  0.2370555437576433  0.40140676765014327  1.0000
  C   C44       1.0  0.619938674887537  0.30313026094265855  0.47622145315063596  1.0000
  C   C45       1.0  0.6542783364776477  0.2885902104143818  0.5518264810203954  1.0000
  C   C46       1.0  0.6101741922723866  0.20815311177375034  0.556183127051083  1.0000
  C   C47       1.0  0.5313665620592735  0.142333040454759  0.4827298605706749  1.0000
  C   C48       1.0  0.4965268872912532  0.15596084932357518  0.40628148778296064  1.0000
  C   C49       1.0  0.01985145542229059  0.641593162623892  0.37565113750410994  1.0000
  C   C50       1.0  0.0329301270478194  0.6908052068136735  0.3184495240592141  1.0000
  C   C51       1.0  0.9386864510771096  0.6813282946568161  0.2500526177496726  1.0000
  C   C52       1.0  0.9757104794830473  0.7432185591005178  0.1523046808481153  1.0000
  C   C53       1.0  0.9679459651952735  0.8143724278293986  0.17189647648598425  1.0000
  C   C54       1.0  0.9854988985571759  0.87204009181126  0.12183279903131224  1.0000
  C   C55       1.0  0.8974280442933663  0.5935186800224918  0.12837429475866102  1.0000
  C   C56       1.0  0.8395456453396558  0.5185472745878019  0.13686407615028268  1.0000
  C   C57       1.0  0.8135037782501547  0.44292554862674965  0.0958549340513237  1.0000
  C   C58       1.0  0.8437112161464085  0.4386601557501568  0.04492774835696305  1.0000
  C   C59       1.0  0.9018742783698661  0.512299641509672  0.036911380775722175  1.0000
  C   C60       1.0  0.9291707645141586  0.5887689995995862  0.07819650729792121  1.0000
  C   C61       1.0  0.9900745814771565  0.6198582715302007  0.6277660667715691  1.0000
  C   C62       1.0  0.007406262674903874  0.6764328248088355  0.6960464072632345  1.0000
  C   C63       1.0  0.0013887411871623364  0.7503323465381153  0.673701640113502  1.0000
  C   C64       1.0  0.07962083474933547  0.8467467710541229  0.81027682999272  1.0000
  C   C65       1.0  0.9823091807980842  0.8272043755535543  0.7874681264384549  1.0000
  C   C66       1.0  0.9926142000781245  0.8764705043939821  0.8561791579064024  1.0000
  C   C67       1.0  0.17224122296633013  0.8659637066205679  0.75213028518563  1.0000
  C   C68       1.0  0.1804264800864797  0.855508074171436  0.6854652988648939  1.0000
  C   C69       1.0  0.2703130250651522  0.8919827811367692  0.6984236182515666  1.0000
  C   C70       1.0  0.35550719173412193  0.9404058865078946  0.7777417215823645  1.0000
  C   C71       1.0  0.3484430058099084  0.9507609867510861  0.8441000292007694  1.0000
  C   C72       1.0  0.2586534350278431  0.913921579114491  0.8321322864783847  1.0000
  N   N1        1.0  0.09754690918548542  0.2562452211738323  0.3300896186545864  1.0000
  N   N2        1.0  0.08146626909171922  0.24912735994211077  0.7436043321430151  1.0000
  N   N3        1.0  0.5042726896330191  0.6725641474011937  0.7489930899615227  1.0000
  N   N4        1.0  0.503368101081093  0.25299432951767553  0.3255953567206514  1.0000
  N   N5        1.0  0.9203140134978244  0.6693017049121046  0.16766641880554206  1.0000
  N   N6        1.0  0.08114346314249142  0.831044526170042  0.7382470679798362  1.0000
  O   O1        1.0  0.9961452189395377  0.004221058743117644  0.9933124797892203  1.0000
  O   O2        1.0  0.05483082759386525  0.11860307998464302  0.15248500541635215  1.0000
  O   O3        1.0  0.911740376006551  0.08993541605729029  0.04347806221406347  1.0000
  O   O4        1.0  0.9697629356738561  0.41590419729532124  0.33029856499766225  1.0000
  O   O5        1.0  0.07364989649915321  0.4064133009759348  0.4478491881305877  1.0000
  O   O6        1.0  0.043256395813913454  0.10619339438197223  0.879609697783651  1.0000
  O   O7        1.0  0.9627672323843958  0.13914485356563017  0.9121398098602782  1.0000
  O   O8        1.0  0.9169770172751049  0.3714785671608924  0.5830874327463673  1.0000
  O   O9        1.0  0.04613263416971051  0.3845790013006814  0.593852395847821  1.0000
  O   O10       1.0  0.7809011359288971  0.8460177235327927  0.8917477750518187  1.0000
  O   O11       1.0  0.7796323426537665  0.9579233895806388  0.8612920495848434  1.0000
  O   O12       1.0  0.21697598098594945  0.6713528801488838  0.6250604874955458  1.0000
  O   O13       1.0  0.21687192164382788  0.5548761591161385  0.6160742830492295  1.0000
  O   O14       1.0  0.7797786513111625  0.4026514846970581  0.42913122633724876  1.0000
  O   O15       1.0  0.7866668055198491  0.37886305533322945  0.31935671580456115  1.0000
  O   O16       1.0  0.2183672383387429  0.12490924883153141  0.04553322680696519  1.0000
  O   O17       1.0  0.21346890825108936  0.10696104050146732  0.15835646037534756  1.0000
  O   O18       1.0  0.9465187311443133  0.5662336192772256  0.34057184785867906  1.0000
  O   O19       1.0  0.0824698379774848  0.6782456385075768  0.4537719130282749  1.0000
  O   O20       1.0  0.0426810866878431  0.9500154784659688  0.16076580205973776  1.0000
  O   O21       1.0  0.9401237880350851  0.8372039527325252  0.04432299392422095  1.0000
  O   O22       1.0  0.028055842414654003  0.655318417461034  0.5894625612808608  1.0000
  O   O23       1.0  0.9401717132636154  0.5415938514467741  0.6143542078703081  1.0000
  O   O24       1.0  0.9317552158038533  0.8371189117630587  0.8743929990236753  1.0000
  O   O25       1.0  0.06053171001646821  0.9537638945589978  0.8888066166009312  1.0000
  O   O26       1.0  0.9984608954483474  0.5032096591479193  0.4943924392218759  1.0000
